      26
i =        0, time =        0.000, E =     -1010.1043666500
  C         5.7687325176       10.7466672685        0.8297630888       -0.0002598036       -0.0000120004       -0.0006329601
  C         6.1759049599       10.3165302061       10.9468493594        0.0001746981        0.0003747606       -0.0001805984
  C         7.3651316822       11.0804691796       10.5318025970        0.0001147827       -0.0003353010        0.0002513001
  H         4.1829690545        9.7462811260       10.2044757562        0.0008220878       -0.0004314481       -0.0000697552
  H         4.6547659477       11.3997761340        9.9846382969       -0.0009999993       -0.0018764769        0.0000569984
  H         5.3867025325       10.0601610256        9.0342278607       -0.0007256940        0.0009705116       -0.0002966504
  H         6.4484815632        9.2782562647       10.9369812494        0.0001992792        0.0000834093       -0.0006358265
  H         6.9731167131       12.0282561859       10.1835520555        0.0008385832        0.0001632653        0.0000330863
  H         7.8956860369       10.6026891115        9.7201939913       -0.0002634225       -0.0010676961       -0.0005752233
  H         8.1150794237       11.2475628430       11.2559254630       -0.0000550555       -0.0002782046       -0.0002513219
  N         4.9993604024       10.4299218751        9.9628734519       -0.0001929501       -0.0001168721        0.0001305718
  O         4.7182312484       11.4299498536        0.9450552623       -0.0000126179        0.0000102821        0.0000202326
  O         6.6186598452       10.4344980209        1.7414137571       -0.0000496422        0.0000172857        0.0003061399
  C         5.6966481636       10.3137687517        6.6003474266        0.0004323911       -0.0001302786        0.0002985800
  C         6.5241524133       10.1555489565        5.2549895748        0.0002138231        0.0001203649        0.0000616894
  C         7.7790341660       10.9591234969        4.8966582440        0.0001157935       -0.0004382202       -0.0003406428
  H         4.7359772967        9.8972637334        4.2115317486       -0.0001588136       -0.0009361174       -0.0005589533
  H         5.0421126712       11.4560265014        4.1330534261       -0.0002895050        0.0004217854       -0.0011873553
  H         5.9431882215       10.4417657188        3.1146119513        0.0003621298       -0.0000627644        0.0000033761
  H         6.7133058533        9.0558156849        5.1497496463       -0.0005663065       -0.0013604153        0.0000672765
  H         7.5949889137       12.0228086748        4.9266835320        0.0006829154       -0.0001069182       -0.0008873726
  H         8.0837305308       10.7895145583        3.8921639497        0.0004024072       -0.0004267358        0.0008629851
  H         8.5888906030       10.7059899973        5.6409360823       -0.0011579430       -0.0013369422        0.0008657651
  N         5.5441345681       10.5658349200        4.1280459114        0.0002108636        0.0001686913       -0.0001394540
  O         4.6506116835       11.0517911981        6.6222031481        0.0002164788       -0.0002079147        0.0000902202
  O         6.1214898416        9.5620266734        7.5769580489       -0.0001151672        0.0002477710        0.0003945693
      26
i =        3, time =        1.500, E =     -1010.0980164633
  C         5.7601926728       10.7464182676        0.8079229259       -0.0002519833       -0.0000050047       -0.0006834067
  C         6.1803137513       10.3276160432       10.9423171161        0.0000911154        0.0002935374       -0.0000961883
  C         7.3689976317       11.0705091347       10.5379869206        0.0001278371       -0.0002694345        0.0001153701
  H         4.2192333028        9.7379725635       10.2011590413        0.0013105234       -0.0001421402       -0.0001024942
  H         4.6206911290       11.3463854903        9.9805052296       -0.0011435786       -0.0011849016       -0.0002836881
  H         5.3589612976       10.0999275002        9.0236403056       -0.0009383076        0.0014193994       -0.0003594296
  H         6.4520100948        9.2751179817       10.9194871007        0.0000004723       -0.0002184240       -0.0004186208
  H         7.0058075006       12.0399697188       10.1833438596        0.0011598116        0.0005030835       -0.0000330429
  H         7.8859454526       10.5671755607        9.6967122322       -0.0003681725       -0.0010366386       -0.0007585159
  H         8.1204562957       11.2398184397       11.2632337059        0.0003805200       -0.0002135340        0.0006814069
  N         4.9935925832       10.4251804753        9.9677211801       -0.0001501627       -0.0001783366        0.0001621582
  O         4.7176624323       11.4302033161        0.9459646751       -0.0000234166        0.0000053729        0.0000333579
  O         6.6169940679       10.4346468180        1.7513080401       -0.0000567667       -0.0000067066        0.0002886154
  C         5.7108532189       10.3099995305        6.6100240183        0.0004287630       -0.0000943461        0.0002872175
  C         6.5299227370       10.1596448851        5.2560694701        0.0001351712        0.0001204271        0.0000021542
  C         7.7833171474       10.9447864948        4.8881912493        0.0001415451       -0.0004315973       -0.0001685534
  H         4.7364716383        9.8684441618        4.1922832281        0.0002511266       -0.0007389564       -0.0006094320
  H         5.0390986218       11.4780008000        4.1011959700        0.0001416506        0.0008177436       -0.0007420181
  H         5.9568129312       10.4433496383        3.1213224597        0.0004775169        0.0001548160        0.0003791728
  H         6.6908527884        9.0246224432        5.1502857038       -0.0007956207       -0.0004414083       -0.0000281171
  H         7.6158271529       12.0237819333        4.9016339575        0.0005947290        0.0001116951       -0.0006313321
  H         8.1031308776       10.7669614219        3.9084361718        0.0008085206       -0.0009767303        0.0000444203
  H         8.5468438976       10.6678083820        5.6586888208       -0.0013536023       -0.0009751651        0.0002274037
  N         5.5496321926       10.5695923636        4.1230755317        0.0001163465        0.0000619582       -0.0001616833
  O         4.6585393100       11.0446022682        6.6252537990        0.0002679306       -0.0002311408        0.0000957917
  O         6.1173279680        9.5707302958        7.5896946279       -0.0001360954        0.0002804441        0.0003850292
      26
i =        6, time =        3.000, E =     -1010.0916526916
  C         5.7525950658       10.7462764066        0.7857304195       -0.0002049003       -0.0000043278       -0.0006542936
  C         6.1817750887       10.3354341626       10.9404660434       -0.0000031674        0.0001779450       -0.0000195774
  C         7.3739845994       11.0629885717       10.5391721062        0.0001872445       -0.0001850238       -0.0000411309
  H         4.2637545678        9.7325466088       10.1994535968        0.0012811950       -0.0002968836        0.0000347715
  H         4.5780203919       11.3272296481        9.9675498118       -0.0014471206       -0.0000016600       -0.0004692653
  H         5.3267785048       10.1510783267        9.0102227454       -0.0009889562        0.0016499043       -0.0004628941
  H         6.4479005043        9.2669334523       10.9100713626       -0.0002582386       -0.0002227435       -0.0001465136
  H         7.0491344862       12.0585917750       10.1821832496        0.0014755118        0.0005773640       -0.0000197584
  H         7.8703770838       10.5374024198        9.6747278909       -0.0005889268       -0.0007359399       -0.0005132043
  H         8.1372452759       11.2320258752       11.2968694972        0.0005494261       -0.0003008130        0.0012495116
  N         4.9899025601       10.4183553710        9.9733253471       -0.0000695837       -0.0002249483        0.0001751900
  O         4.7166413000       11.4303150663        0.9471503760       -0.0000396812        0.0000017057        0.0000370605
  O         6.6147433417       10.4341232944        1.7599355257       -0.0000837523       -0.0000240807        0.0002299355
  C         5.7245119599       10.3078049229        6.6189611699        0.0003995775       -0.0000357275        0.0002534879
  C         6.5328552959       10.1632039906        5.2550683945        0.0000403228        0.0000956063       -0.0000637490
  C         7.7881444838       10.9310704628        4.8854147419        0.0001502516       -0.0004005965       -0.0000153977
  H         4.7535201745        9.8514813710        4.1719305541        0.0007711523       -0.0002705221       -0.0006238216
  H         5.0527679630       11.5046940078        4.0848963115        0.0007050144        0.0007204270       -0.0002463881
  H         5.9748935632       10.4515350775        3.1375361601        0.0006325690        0.0003339186        0.0005588798
  H         6.6620458995        9.0289051868        5.1480673883       -0.0009337440        0.0006873732       -0.0001069154
  H         7.6343911189       12.0269921932        4.8854124782        0.0005463802        0.0000190652       -0.0003616002
  H         8.1362910983       10.7255140404        3.8960039905        0.0011675064       -0.0015213558       -0.0006856301
  H         8.5038997846       10.6421948128        5.6579404519       -0.0011674663       -0.0005982406       -0.0001987587
  N         5.5515215830       10.5700964070        4.1175970879       -0.0000023020       -0.0000253029       -0.0001683657
  O         4.6681849845       11.0366458526        6.6284747458        0.0003197590       -0.0002531622        0.0001003782
  O         6.1127049890        9.5802775166        7.6023070487       -0.0001427640        0.0002989786        0.0003858518
      26
i =        9, time =        4.500, E =     -1010.0955735603
  C         5.7469582986       10.7461358985        0.7656659948       -0.0001362455       -0.0000034821       -0.0005558686
  C         6.1801052444       10.3391781621       10.9408385864       -0.0000974000        0.0000510345        0.0000372489
  C         7.3817277345       11.0585267729       10.5355969901        0.0002904309       -0.0000850124       -0.0001671132
  H         4.2979950351        9.7138404832       10.2047348990        0.0007342368       -0.0009002132        0.0002951247
  H         4.5286546972       11.3400054137        9.9517460542       -0.0014690593        0.0005884132       -0.0004467044
  H         5.2956456170       10.2057973404        8.9935571121       -0.0008797014        0.0016368900       -0.0005335336
  H         6.4351102770        9.2625417987       10.9101471908       -0.0005113322       -0.0000224663        0.0001529002
  H         7.1019497292       12.0756268795       10.1828191321        0.0017209907        0.0004275778        0.0000708198
  H         7.8477937530       10.5200468722        9.6649683826       -0.0007595905       -0.0003180910       -0.0000723929
  H         8.1518172435       11.2182914045       11.3389428830        0.0002567179       -0.0005662341        0.0011926498
  N         4.9890521662       10.4113716646        9.9789924071        0.0000130891       -0.0001797197        0.0001656443
  O         4.7150404167       11.4303224957        0.9483121710       -0.0000577423       -0.0000012910        0.0000321242
  O         6.6113837729       10.4331075964        1.7660941046       -0.0001225022       -0.0000372521        0.0001403607
  C         5.7369025315       10.3077790682        6.6264811384        0.0003530257        0.0000354569        0.0002017739
  C         6.5324311598       10.1660699540        5.2519018015       -0.0000683031        0.0000864493       -0.0001279229
  C         7.7930976319       10.9186149055        4.8861910968        0.0001507738       -0.0003581516        0.0000410395
  H         4.7843898381        9.8502577556        4.1516913960        0.0010175539        0.0001522290       -0.0006034842
  H         5.0849814310       11.5222655347        4.0850068323        0.0012279596        0.0003190220        0.0002465060
  H         5.9985582774       10.4647071733        3.1553995583        0.0008094175        0.0004570063        0.0004783618
  H         6.6311452395        9.0662029029        5.1431227704       -0.0009131130        0.0014528925       -0.0002010018
  H         7.6520610239       12.0225729686        4.8774726533        0.0005362504       -0.0003186883       -0.0001356103
  H         8.1764299915       10.6695519813        3.8715371425        0.0012015954       -0.0018263510       -0.0006290852
  H         8.4751724280       10.6274445153        5.6501106122       -0.0004901142       -0.0003295907       -0.0001824332
  N         5.5496380680       10.5682634746        4.1122377372       -0.0001046191       -0.0000788008       -0.0001539384
  O         4.6794643285       11.0280644432        6.6318272246        0.0003655981       -0.0002675177        0.0001035902
  O         6.1081069635        9.5902299878        7.6150763740       -0.0001343974        0.0003053621        0.0003930170
