      12
 i =        0, time =        0.000, E =       -68.5326334251
  C         7.4160838756        6.7603642726        7.6560726509       -0.0004232035        0.0005827097       -0.0003122725
  C         8.5047475797        5.6298138591        7.4403647551        0.0002717987       -0.0002851664        0.0000120578
  C         7.8470437469        8.0716318747        6.9592341814        0.0002190723       -0.0001220138       -0.0001038004
  O         7.2341559780        8.2834310135        5.7032012998       -0.0000851256        0.0002120556       -0.0002668085
  O         8.6556988490        8.8397615041        7.3181740454        0.0001048259       -0.0003571931        0.0000898065
  H         7.6956970806        9.1134050404        5.4602951980        0.0003730105        0.0000373775        0.0013294180
  H         8.1991666652        4.7034500485        7.8668827009       -0.0001886835       -0.0001446755       -0.0012115144
  H         8.7107731825        5.4443866310        6.3760650572        0.0003408381        0.0009197197        0.0014520189
  H         9.4964421299        5.8637706967        7.8514454971        0.0017175142        0.0002311857        0.0007806492
  H         7.3039739480        7.1353281051        8.6712791483        0.0008641747       -0.0001586019        0.0000799454
  O         6.1621399167        6.2109131986        7.2140316329       -0.0002345895       -0.0000601644        0.0002927715
  H         6.2439534219        6.3956222912        6.2177370352       -0.0005192676        0.0002784318        0.0005415054
      12
 i =     1000, time =      500.000, E =       -68.5260224454
  C         7.4653976867        6.6512236921        7.5888535646        0.0001160089       -0.0000306254        0.0004041210
  C         8.5155074019        5.5907235716        7.1411140522       -0.0001887152       -0.0002359808       -0.0003152855
  C         7.8505894642        8.0371658312        6.8817178915        0.0003588964       -0.0002198807       -0.0003420753
  O         7.4322343402        8.1637330058        5.6027828828       -0.0001493948        0.0003064132       -0.0000021975
  O         8.4392540944        8.9536525512        7.5150156851        0.0001588896        0.0001581858       -0.0000127410
  H         7.6770334509        9.0517972317        5.2339823875       -0.0009043371        0.0009196021        0.0003488349
  H         8.3373628149        4.5528926906        7.4820253378       -0.0009296300        0.0000408521        0.0015737303
  H         8.7032283165        5.6860339308        6.0770197525       -0.0002784304       -0.0005381177        0.0008753749
  H         9.4685095595        5.8548258816        7.6575559470       -0.0007181903        0.0003077747        0.0009299964
  H         7.5273154140        6.8159400198        8.7332459955       -0.0006517731       -0.0011002800        0.0002264301
  O         6.1378743622        6.4118644741        7.4825268773       -0.0000262418       -0.0001048880       -0.0000833478
  H         5.8551756774        5.7739081870        6.7579674419        0.0003278637        0.0004619448        0.0006669889
      12
 i =     2000, time =     1000.000, E =       -68.5327924547
  C         7.5103468326        6.7323970675        7.6520411155        0.0000240129       -0.0003799914        0.0000695370
  C         8.4575762547        5.5646901647        7.1307758832       -0.0000326393        0.0001348581       -0.0004217717
  C         7.9161100003        8.0920066362        6.8822508463        0.0004221449        0.0002092103        0.0002732760
  O         7.4027568063        8.1651323266        5.5507625171       -0.0001468104       -0.0001863239       -0.0002280708
  O         8.4780607366        8.9457456907        7.5495339313       -0.0000100834       -0.0001408391        0.0001678899
  H         7.4941032059        9.0980198278        5.2448884625        0.0009092016       -0.0001480417        0.0010831383
  H         8.1444403229        4.6215324024        7.6821158853        0.0010776209        0.0010422741        0.0006407311
  H         8.3570154108        5.4562842810        6.0761197491       -0.0011860936       -0.0012942314       -0.0008562881
  H         9.4830963725        5.9173348056        7.4006082651       -0.0003588066        0.0004463972       -0.0005777640
  H         7.7098980989        7.0157246062        8.7036743397        0.0004506350        0.0020762934        0.0006073853
  O         6.1132727284        6.3049329286        7.4792832491       -0.0002033567        0.0002815378       -0.0000324802
  H         5.9964444877        6.1166216929        6.5275864655       -0.0001303089       -0.0010254586        0.0015293168
      12
 i =     2997, time =     1498.500, E =       -68.5324280370
  C         7.3010144060        6.7658005069        7.6157969904        0.0001955194        0.0000374018        0.0000951863
  C         8.4869279719        5.8993420061        8.0080273533       -0.0001499400       -0.0003122148       -0.0001012284
  C         7.8758112359        8.0637991223        6.8724253707       -0.0002527414        0.0001656330        0.0001490725
  O         6.8765063921        8.4587004879        5.9356813302       -0.0002618376       -0.0000602061        0.0000119502
  O         8.9663836245        8.5584770284        7.0674739248        0.0002360092       -0.0001276266       -0.0000018042
  H         7.3481091951        9.1397241547        5.4174381341        0.0003667467       -0.0004710103       -0.0000980625
  H         8.1839924150        4.8658592890        8.1350758883        0.0009083477        0.0002960472       -0.0002765726
  H         9.1820393397        5.8963332862        7.1844597216        0.0015349957        0.0001690532        0.0012569426
  H         9.0584209261        6.1787039829        8.9184041233       -0.0000159417       -0.0004817890       -0.0003934662
  H         6.6596525402        7.1528973603        8.5239673138        0.0008473660        0.0019315536        0.0007622320
  O         6.3346204417        6.0598312442        6.7992593042       -0.0000928122        0.0001043991       -0.0002511317
  H         6.4661570335        6.3202751437        5.8874393979        0.0007057494        0.0011644574        0.0008982112
      12
 i =     3997, time =     1998.500, E =       -68.5267496100
  C         7.3694565645        6.7721409906        7.6444476802        0.0000759392        0.0002179352       -0.0001415407
  C         8.5601107020        5.7342857355        7.5518980968       -0.0002488194       -0.0002255850       -0.0001528828
  C         7.7633571029        8.0857242684        6.9219678906        0.0000814789       -0.0002595983        0.0001090785
  O         7.1632633792        8.3510674898        5.6875674649       -0.0000077875        0.0000149176        0.0001392374
  O         8.7929907568        8.7134419868        7.2623848160       -0.0001288049        0.0000509000       -0.0000443106
  H         7.5478487075        9.2640568236        5.5756351821        0.0009337329       -0.0001826222        0.0005608280
  H         8.5684067978        5.1908310863        8.5275083131       -0.0001051308       -0.0009014235       -0.0000714963
  H         8.3974966906        5.0090647662        6.6868495358       -0.0006386585        0.0002080734       -0.0006234123
  H         9.4767610173        6.2798980370        7.5318739606       -0.0008637853        0.0010727672        0.0000357787
  H         7.3991439227        7.0288735498        8.7758860048        0.0006593519        0.0001162232        0.0007591304
  O         6.2065030991        6.1270701303        7.1077788188        0.0002398986        0.0000724506       -0.0000136292
  H         5.3952963748        6.5924531152        7.4198173616       -0.0005361818        0.0006767504        0.0002572904
      12
 i =     4997, time =     2498.500, E =       -68.5378497975
  C         7.5031773431        6.7686731471        7.5971479684       -0.0003786095       -0.0002832232       -0.0000145318
  C         8.4854456563        5.5337388987        7.4046202573        0.0000713111        0.0002054617       -0.0000164214
  C         7.8192721512        8.1022277108        6.9342050689       -0.0000996581        0.0000226630       -0.0000260546
  O         7.2589607536        8.2507885730        5.6684542171        0.0001981787        0.0002117482        0.0000328426
  O         8.6040474850        8.8882911240        7.3923223428        0.0001547767       -0.0000781852       -0.0001540146
  H         7.6372713830        9.0683539458        5.2581609883       -0.0011139172        0.0007278965        0.0006440765
  H         8.2127684307        4.8280038655        8.2235894207        0.0011764416        0.0002877638       -0.0006723623
  H         8.2887784417        5.0721259137        6.4432101475       -0.0004390640       -0.0003764058        0.0008818826
  H         9.5985709230        5.7647052081        7.4340520723        0.0006647976       -0.0003971586       -0.0004992136
  H         7.4741928964        6.8992709593        8.6711197830        0.0005967431       -0.0005270370        0.0013631653
  O         6.1810302223        6.2868868287        7.2736204674       -0.0001688854       -0.0000712385        0.0000671171
  H         6.0878361794        6.2466083488        6.2686021810        0.0010623053        0.0000151838       -0.0002296304
      12
 i =     5997, time =     2998.500, E =       -68.5336693770
  C         7.4661317841        6.7453163340        7.5618300111        0.0000269619       -0.0000339512        0.0002491851
  C         8.4984320227        5.6513319413        6.9928392784        0.0000297415       -0.0001527631       -0.0001640969
  C         7.8301441755        8.0586261631        6.9693871654       -0.0002302320       -0.0000267260        0.0000549044
  O         7.5428382109        8.0712763034        5.6280842003       -0.0001018099        0.0000213009       -0.0001085404
  O         8.4268188132        8.9712805380        7.5366496967        0.0001164351       -0.0000240461        0.0000090882
  H         7.9701757185        8.8615218155        5.2390760518        0.0004697057        0.0006237848        0.0010615779
  H         8.7698640932        4.9659680751        7.7877335462        0.0003955179        0.0003707016        0.0004182815
  H         8.1133141798        5.0566068675        6.2328950429       -0.0014039795        0.0004706754        0.0001222403
  H         9.4073423565        6.1295192768        6.5103751963       -0.0006701109       -0.0000789209       -0.0004936824
  H         7.6861509325        6.8105256401        8.6151421837       -0.0003053068        0.0007597890        0.0010448793
  O         6.0589821363        6.3355607540        7.5594899417        0.0001847203       -0.0000017761       -0.0001819916
  H         5.7541491349        6.2110828864        6.6340857197        0.0004038425        0.0004304213        0.0005758072
      12
 i =     6994, time =     3497.000, E =       -68.5333563252
  C         7.5076452766        6.7365518701        7.5787831064        0.0000673018       -0.0002573150        0.0000827342
  C         8.5924670103        5.6119524059        7.3249236070        0.0001217388        0.0001549206       -0.0003002726
  C         7.8668213563        8.0354187441        6.9673687638        0.0001228008        0.0000353689       -0.0003168181
  O         7.2225782831        8.0996298317        5.6983316975        0.0000633067       -0.0000385087        0.0002101982
  O         8.5690966063        8.8932744809        7.4455751226       -0.0001387726        0.0000065490        0.0001066343
  H         7.7514479977        8.7812326519        5.2066115028        0.0010453210       -0.0002530624        0.0004812264
  H         8.0706283801        4.6489746682        7.4973470164       -0.0003065157        0.0004786990       -0.0001801822
  H         8.9692790488        5.6156007996        6.3266655337       -0.0005553120       -0.0012333344        0.0008603076
  H         9.3942669752        5.9006778633        8.0902291458        0.0001525716        0.0005181569       -0.0007567431
  H         7.4584406894        6.8630101892        8.6813171975        0.0002320496        0.0001927457       -0.0005458084
  O         6.1134809745        6.4223609154        7.2508463700       -0.0001794159        0.0000664305        0.0000605137
  H         5.9647729838        6.4863000970        6.3118367565       -0.0002889642        0.0005527682        0.0005567753
      12
 i =     7994, time =     3997.000, E =       -68.5392016681
  C         7.3381945478        6.7422736018        7.6521791485        0.0001452053        0.0003523941       -0.0000844256
  C         8.5419883810        5.7870296319        7.5786814822       -0.0003659942        0.0001089839       -0.0002044662
  C         7.8333433103        8.0869553456        6.8918719539        0.0002280302       -0.0000825517        0.0000457688
  O         7.1407506004        8.3382198190        5.7261292003        0.0000003667        0.0001196631        0.0001504758
  O         8.7949668572        8.7373618256        7.2983696778       -0.0000116049       -0.0001564037        0.0000417811
  H         7.4315493790        9.0959185816        5.1811881661        0.0000473441       -0.0002216036        0.0003810265
  H         8.3624867514        4.9582431776        8.2679393376        0.0019476933        0.0005976107        0.0003558885
  H         8.6949575617        5.4619069534        6.5613065187       -0.0004814190        0.0003677544        0.0001193436
  H         9.4904569732        6.2508962277        7.9475212350       -0.0008630241        0.0001003747       -0.0005673485
  H         7.1249809865        7.0410685598        8.7302458565        0.0000559586        0.0007975921       -0.0016413025
  O         6.1753251367        6.1236673694        7.1346273005       -0.0000707544       -0.0003255387        0.0001239236
  H         6.2559135959        6.1481365126        6.1672319025        0.0005007453       -0.0004116612       -0.0007308435
      12
 i =     8994, time =     4497.000, E =       -68.5294128752
  C         7.5419292219        6.6586375522        7.6098026224       -0.0000199678        0.0000912841        0.0000355362
  C         8.4821982000        5.5349245414        7.3503022636        0.0000362318       -0.0000738747       -0.0001608334
  C         7.8815397857        8.0530555731        6.9257593517       -0.0002222956        0.0002449323       -0.0004224923
  O         7.2875283928        8.2612200744        5.5872331001       -0.0000246609       -0.0000085757       -0.0000893848
  O         8.5264755861        8.9242172131        7.4466082758        0.0001969220       -0.0001162185        0.0001474929
  H         7.3809119790        9.2303074568        5.4688323404       -0.0004822043        0.0006137175        0.0010118419
  H         8.1210257966        4.5556508932        7.6355487800       -0.0008666447       -0.0003392561       -0.0001636222
  H         8.6585385736        5.4018849097        6.3096079468        0.0013031304       -0.0002199540       -0.0005401157
  H         9.4885761253        5.8114032453        7.6707885308       -0.0005771466       -0.0000682464        0.0000984304
  H         7.4958822047        6.9623942569        8.6289005149       -0.0015645584       -0.0003124786        0.0013494462
  O         6.1623909110        6.3542396734        7.3493959751        0.0001321060       -0.0001010227        0.0002417364
  H         6.0631544344        5.9954650379        6.4069000156       -0.0002368631        0.0008003021       -0.0000011971
