6
	Energy:      -1.2419221
C         -5.62555        1.27870        0.00000
C         -4.15588        1.27420        0.00001
D         -6.00113        1.22152       -1.02371
D         -5.99802        2.19563        0.46129
D         -6.00370        0.42253        0.56241
N         -3.01847        1.24100       -0.00001
