22
	Energy:      11.8870617
C         -5.56625        2.40388       -0.03138
C         -5.74946        1.02734       -0.12838
C         -4.28189        2.93312        0.08081
H         -6.42732        3.06773       -0.03849
C         -3.16048        2.09250        0.08162
C         -4.64533        0.18006       -0.10638
H         -6.75218        0.61559       -0.21392
C         -3.36072        0.70963        0.00206
H         -4.78592       -0.89621       -0.17233
H         -2.50921        0.03343        0.02339
H         -4.17225        4.01002        0.17247
C         -1.73012        2.63219        0.21672
O         -1.69546        4.08925        0.30592
C         -0.79503        2.11121       -0.86974
H         -1.32254        2.26033        1.16127
C         -1.75803        4.84238       -0.93263
H         -1.90752        5.89808       -0.69255
H         -2.58804        4.48600       -1.54843
H         -0.81712        4.72891       -1.47799
O          0.46661        2.23485       -0.56014
O         -1.14624        1.84595       -2.00204
H          0.96589        2.01155       -1.36497
