      26
 i =        0, time =        0.000, E =     -1010.1043666500
  C         5.7687325176       10.7466672685        0.8297630888       -0.0002598036       -0.0000120004       -0.0006329601
  C         6.1759049599       10.3165302061       10.9468493594        0.0001746981        0.0003747606       -0.0001805984
  C         7.3651316822       11.0804691796       10.5318025970        0.0001147827       -0.0003353010        0.0002513001
  H         4.1829690545        9.7462811260       10.2044757562        0.0008220878       -0.0004314481       -0.0000697552
  H         4.6547659477       11.3997761340        9.9846382969       -0.0009999993       -0.0018764769        0.0000569984
  H         5.3867025325       10.0601610256        9.0342278607       -0.0007256940        0.0009705116       -0.0002966504
  H         6.4484815632        9.2782562647       10.9369812494        0.0001992792        0.0000834093       -0.0006358265
  H         6.9731167131       12.0282561859       10.1835520555        0.0008385832        0.0001632653        0.0000330863
  H         7.8956860369       10.6026891115        9.7201939913       -0.0002634225       -0.0010676961       -0.0005752233
  H         8.1150794237       11.2475628430       11.2559254630       -0.0000550555       -0.0002782046       -0.0002513219
  N         4.9993604024       10.4299218751        9.9628734519       -0.0001929501       -0.0001168721        0.0001305718
  O         4.7182312484       11.4299498536        0.9450552623       -0.0000126179        0.0000102821        0.0000202326
  O         6.6186598452       10.4344980209        1.7414137571       -0.0000496422        0.0000172857        0.0003061399
  C         5.6966481636       10.3137687517        6.6003474266        0.0004323911       -0.0001302786        0.0002985800
  C         6.5241524133       10.1555489565        5.2549895748        0.0002138231        0.0001203649        0.0000616894
  C         7.7790341660       10.9591234969        4.8966582440        0.0001157935       -0.0004382202       -0.0003406428
  H         4.7359772967        9.8972637334        4.2115317486       -0.0001588136       -0.0009361174       -0.0005589533
  H         5.0421126712       11.4560265014        4.1330534261       -0.0002895050        0.0004217854       -0.0011873553
  H         5.9431882215       10.4417657188        3.1146119513        0.0003621298       -0.0000627644        0.0000033761
  H         6.7133058533        9.0558156849        5.1497496463       -0.0005663065       -0.0013604153        0.0000672765
  H         7.5949889137       12.0228086748        4.9266835320        0.0006829154       -0.0001069182       -0.0008873726
  H         8.0837305308       10.7895145583        3.8921639497        0.0004024072       -0.0004267358        0.0008629851
  H         8.5888906030       10.7059899973        5.6409360823       -0.0011579430       -0.0013369422        0.0008657651
  N         5.5441345681       10.5658349200        4.1280459114        0.0002108636        0.0001686913       -0.0001394540
  O         4.6506116835       11.0517911981        6.6222031481        0.0002164788       -0.0002079147        0.0000902202
  O         6.1214898416        9.5620266734        7.5769580489       -0.0001151672        0.0002477710        0.0003945693
      26
 i =        7, time =        3.500, E =     -1010.0915824507
  C         5.7504661668       10.7462281900        0.7786961948       -0.0001834504       -0.0000044148       -0.0006285188
  C         6.1815650193       10.3371495714       10.9403768838       -0.0000351550        0.0001354163        0.0000020586
  C         7.3761887539       11.0611368473       10.5384530600        0.0002182294       -0.0001528336       -0.0000882363
  H         4.2771587002        9.7285298878       10.2002404600        0.0011414051       -0.0004631647        0.0001156168
  H         4.5617670982       11.3291061936        9.9622530553       -0.0015041054        0.0002986328       -0.0004873319
  H         5.3160276842       10.1693158376        9.0049646435       -0.0009685832        0.0016720560       -0.0004961154
  H         6.4445831565        9.2647328824       10.9090011658       -0.0003474690       -0.0001696080       -0.0000479566
  H         7.0658059056       12.0648019371       10.1820708587        0.0015690797        0.0005465959        0.0000034106
  H         7.8635240268       10.5300712219        9.6698352772       -0.0006600059       -0.0006000268       -0.0003732809
  H         8.1431194603       11.2283999272       11.3109998510        0.0004982257       -0.0003722982        0.0012984357
  N         4.9893062427       10.4158810180        9.9752446500       -0.0000397967       -0.0002215345        0.0001745322
  O         4.7161745568       11.4303281316        0.9475541073       -0.0000457468        0.0000007136        0.0000363107
  O         6.6137648057       10.4338330411        1.7623109822       -0.0000957957       -0.0000287992        0.0002029178
  C         5.7288093667       10.3075363087        6.6216534138        0.0003855283       -0.0000127987        0.0002379645
  C         6.5331090288       10.1642053032        5.2542498579        0.0000053402        0.0000887791       -0.0000857936
  C         7.7897933750       10.9267627058        4.8854483610        0.0001509499       -0.0003867963        0.0000153921
  H         4.7627704135        9.8494433955        4.1651168470        0.0009018211       -0.0001078374       -0.0006205079
  H         5.0615361468       11.5120255139        4.0831215636        0.0008945162        0.0006058696       -0.0000788772
  H         5.9821253233       10.4554641180        3.1437397379        0.0006912303        0.0003814426        0.0005606159
  H         6.6517135351        9.0383329723        5.1467514971       -0.0009466198        0.0010114919       -0.0001349088
  H         7.6403182158       12.0267532191        4.8819247068        0.0005397262       -0.0000754404       -0.0002792442
  H         8.1494653409       10.7080502468        3.8878008649        0.0012211682       -0.0016570523       -0.0007643425
  H         8.4919247632       10.6362690561        5.6553573401       -0.0009940300       -0.0004929802       -0.0002464279
  N         5.5512808395       10.5696888868        4.1157624732       -0.0000404226       -0.0000472563       -0.0001659489
  O         4.6717731333       11.0338419877        6.6295797031        0.0003361173       -0.0002591723        0.0001016375
  O         6.1111453055        9.5835688311        7.6065356181       -0.0001416571        0.0003023435        0.0003878592
      26
 i =       14, time =        7.000, E =     -1010.1016074922
  C         5.7426956881       10.7463120069        0.7421453072       -0.0000248550        0.0000151971       -0.0002843286
  C         6.1710088602       10.3371416023       10.9441815207       -0.0002256375       -0.0001052563        0.0000704697
  C         7.4026037163       11.0584151654       10.5233206260        0.0004586794        0.0000740024       -0.0002505527
  H         4.3120615512        9.6403074090       10.2281161543       -0.0000448018       -0.0015309485        0.0004279170
  H         4.4674743162       11.3588340222        9.9390661401       -0.0006210906       -0.0001669898        0.0000815022
  H         5.2576522303       10.2850593734        8.9682586234       -0.0004699122        0.0011735695       -0.0002944939
  H         6.3998036124        9.2700432086       10.9315095897       -0.0007087780        0.0002148051        0.0006035839
  H         7.2008748742       12.0890601754       10.1922715596        0.0018067088        0.0001006891        0.0002669030
  H         7.8082589744       10.5172611231        9.6754314919       -0.0005426326        0.0000983571        0.0002900754
  H         8.1413880303       11.1708730265       11.3804876054       -0.0006281361       -0.0011700915        0.0002259460
  N         4.9914484578       10.4068001039        9.9868690218        0.0000440140        0.0000172635        0.0001191477
  O         4.7111990917       11.4300447971        0.9495197355       -0.0000796343       -0.0000104207        0.0000092495
  O         6.6027362926       10.4305239775        1.7688623845       -0.0001926235       -0.0000574009       -0.0000435554
  C         5.7538645492       10.3129337701        6.6346870425        0.0002685489        0.0001472476        0.0000959199
  C         6.5234982884       10.1729012522        5.2424978191       -0.0002556114        0.0001923871       -0.0002070491
  C         7.8015983175       10.9003332973        4.8873283872        0.0001700537       -0.0003258727       -0.0000104724
  H         4.8244089946        9.8612968047        4.1205079990        0.0001510037        0.0000426594       -0.0005326739
  H         5.1644739258       11.5226281249        4.1182155307        0.0014976256       -0.0001739624        0.0009215919
  H         6.0486332752       10.4929086319        3.1693240823        0.0009514684        0.0005516847        0.0000036281
  H         6.5902889416        9.1389637604        5.1256166059       -0.0005069068        0.0007079456       -0.0004612358
  H         7.6816773891       11.9893874197        4.8765430854        0.0005437401       -0.0007955293        0.0000532433
  H         8.2286104435       10.5696693345        3.8710983856        0.0006052033       -0.0017001385        0.0007612010
  H         8.4912444135       10.6166231361        5.6558206160        0.0010134658       -0.0000702337        0.0003850124
  N         5.5419762913       10.5632118708        4.1052304248       -0.0001383910       -0.0000923722       -0.0000984348
  O         4.7009354154       11.0134235014        6.6375640579        0.0004087297       -0.0002580881        0.0001048517
  O         6.1017780216        9.6068671838        7.6369703182       -0.0000907367        0.0002995990        0.0004049248
      26
 i =       21, time =       10.500, E =     -1010.1150917762
  C         5.7444221475       10.7499986657        0.7380680905        0.0000529510        0.0000876421        0.0001764013
  C         6.1500045308       10.3272130104       10.9478473897       -0.0002974564       -0.0001203370        0.0000113986
  C         7.4401957233       11.0688008655       10.5058445362        0.0004691862        0.0001559903       -0.0002103403
  H         4.3179704868        9.5674047109       10.2313715664        0.0003594085       -0.0000555333       -0.0004708611
  H         4.4721481272       11.2918446440        9.9913946621        0.0004377432       -0.0010864994        0.0012938281
  H         5.2521015607       10.3329815034        8.9752145813        0.0003606328        0.0000427082        0.0004242152
  H         6.3552521316        9.2695439023       10.9916294794       -0.0003601868       -0.0003318955        0.0008724218
  H         7.3213374822       12.1027191803       10.2169964352        0.0012401817        0.0004169954        0.0003344845
  H         7.8118695689       10.5119322435        9.6680539352        0.0006714772       -0.0003069622       -0.0005774085
  H         8.0814311925       11.0558183799       11.3586566227       -0.0004777444       -0.0017429223       -0.0003774768
  N         4.9903255633       10.4145605095        9.9938943765       -0.0000734161        0.0001259655        0.0000749703
  O         4.7047204320       11.4283157821        0.9484816437       -0.0000870479       -0.0000354596       -0.0000369097
  O         6.5848518330       10.4248331004        1.7554264896       -0.0002665094       -0.0000927866       -0.0003004416
  C         5.7716365506       10.3274152617        6.6366445669        0.0002128830        0.0002037918       -0.0000359798
  C         6.4961831363       10.1939400851        5.2245940317       -0.0004264975        0.0002753551       -0.0002503473
  C         7.8193507450       10.8720240645        4.8878287580        0.0003012523       -0.0004220291        0.0000922726
  H         4.7622403729        9.8438674432        4.0841849402       -0.0013517541       -0.0001223892       -0.0003848053
  H         5.2456900788       11.5275328943        4.2101551916        0.0004469310        0.0003837756        0.0013514654
  H         6.1007469114       10.5351474302        3.1518907251        0.0002028475        0.0005218735       -0.0003350882
  H         6.5820879037        9.1001800399        5.0810951487        0.0002315455       -0.0010741913       -0.0005431166
  H         7.7228395245       11.9435652430        4.8764046120        0.0005351382       -0.0002025589       -0.0001494243
  H         8.2387761370       10.4632460039        3.9888851849       -0.0001336945       -0.0011669045        0.0017083604
  H         8.5913406680       10.6333444451        5.6808520869        0.0011091530        0.0005496230       -0.0000005673
  N         5.5365256003       10.5558820298        4.1004575402       -0.0000096306       -0.0001117100       -0.0000337702
  O         4.7311383908       10.9970301940        6.6453051191        0.0003528147       -0.0001497482        0.0000940668
  O         6.0986503905        9.6291063904        7.6676672593        0.0000169289        0.0002810891        0.0003859276
