     208
 i =        0, time =        0.000, E =     -1010.0818480548
  C         0.0353060843       10.3767348015        4.8974056848
  C         0.0162924772       10.0636324784       10.7612920871
  C         0.5222051059        4.5371077492        2.4494405155
  C         0.3726118857        4.4066841137        8.0907852460
  C         1.0383736326       11.4631537857        4.4204257772
  C         1.4038919002       10.6711612814       10.3758958196
  C         1.7685097017        1.2054104469        1.6233114326
  C         1.5507433619        0.9988279447        7.5471359756
  C         2.5790884425        7.9041114783        5.1951071976
  C         2.9014942923        7.7805702735       10.8635748017
  C         2.9388492120        2.0725335273        1.8911247585
  C         2.7154070450        1.9588013570        7.8028522375
  C         3.3552835093        7.9661607672        0.7243611716
  C         3.2638516862        8.1745593035        6.5642833221
  C         3.4378508462        1.8414992829        3.2888908698
  C         3.2784712663        1.7593464967        9.2703883597
  C         4.6196983155        7.2174999579        0.9477093716
  C         4.5525673168        7.3156042662        6.7997544602
  C         4.7507922198        5.1380702164        4.1817792140
  C         4.6675142658        4.9280846077        9.4083431813
  C         5.5709462085       10.4538029612        0.6102570101
  C         5.4329899180       10.7451341605        6.3714183656
  C         6.0109944833        4.2599628135        3.7450234702
  C         5.9686937056        4.0361926772        9.4154361139
  C         5.8075858874       10.5009168886        4.9603391001
  C         6.2399465885       10.3278989750       10.8560603709
  C         6.4945742048        4.6162102332        2.3568934228
  C         6.6574155176        4.1760968666        8.0182369801
  C         7.0387389467       11.3215190279        4.5987566705
  C         7.4538743628       11.3709731783       10.7097729889
  C         7.5315210415        1.2164984363        1.9070250998
  C         7.8988267830        0.8657342693        7.6117845069
  C         8.5326029899        7.9816606168        5.2689289431
  C         8.4770036302        7.8041697095       10.8899325574
  C         8.7494280505        2.1154535928        2.2916019976
  C         9.0466391153        1.8610839180        7.9078301073
  C         9.0268825812        8.1751166546        0.6937600242
  C         9.1549299151        8.3337221374        6.6234274544
  C         9.3978825013        1.8552079789        3.6467743980
  C         9.4644538242        1.7559331758        9.4386728838
  C        10.2488086362        7.3662202061        1.1806255677
  C        10.4282694823        7.5027806978        7.0082192216
  C        10.7027695325        4.9468508598        4.1025238475
  C        10.6702518264        5.0442631749        9.8389843637
  C        11.7736298341       10.5496087778        0.6182745732
  C        11.8504677852       10.6367122672        6.3565936629
  C        12.0075258943        4.1861178259        3.7483049204
  C        11.9186691100        4.1935026464        9.4769509310
  H         0.3999681539        9.3432495721        4.7797544238
  H         0.2244385156        8.9844088098       10.7275397748
  H         0.5789321280        4.2323457158        5.7396104216
  H         0.4578343854        4.2861517862       11.4468108382
  H         0.8810411005        1.3195822915        2.2229158393
  H         0.6948259708        1.0582381047        8.2397022406
  H         0.4365705374        0.0087199304        4.3728903401
  H         1.3450935908       11.7677365148       10.1525175437
  H         1.1627031184        5.4803768073        4.8000809827
  H         1.1993538090        5.4718400153       10.6529734597
  H         1.5570736847        1.3464419550        0.5843543164
  H         1.1232681472        1.1990976455        6.5262209358
  H         1.5032215157        8.4642299661        1.5400647215
  H         1.4532164567        8.6541935379        7.4768601286
  H         1.7324965068        3.7817501431        4.6103941520
  H         1.7053097031        3.7474623075       10.3757828113
  H         1.3669703342       11.2942412631        3.4219175890
  H         1.7735313593       10.1532649788        9.5129904882
  H         1.7913039425        6.8627480258        1.6806034654
  H         1.8185807085        6.9998025944        7.5547319300
  H         2.1844306546        0.1706403588        1.7240122897
  H         1.8615850065       12.3209557712        7.6755977955
  H         1.8447623397       11.6595803997        5.0630780751
  H         2.1785883869       10.6244359697       11.1821469187
  H         2.6522789378        7.9498590732        2.7171178244
  H         2.6532958153        8.0606748210        8.5895287775
  H         2.6238929956        3.1145197918        1.9103674091
  H         2.4234082618        3.0003352634        7.6494761119
  H         3.5710786976        9.0335029107        0.8366662824
  H         3.5784144543        9.1733486014        6.6702700383
  H         3.7515563738        2.2631356987        0.0496637035
  H         3.5104439609        1.9217666282        5.8000581876
  H         3.9339305344        4.8923474605        3.4730109059
  H         4.0757709333        4.3947011034        8.7013139956
  H         4.5463285191        6.1400424112        0.9574650156
  H         4.4033308099        6.1953816581        6.8670032065
  H         4.5240293825        0.8386980931        0.8310891130
  H         4.0112784687        0.5899406789        6.7605535176
  H         4.5221613919        4.7909763039        5.2593407971
  H         4.1027329564        4.8167858780       10.3843409598
  H         3.8100616427       10.2531071479        4.3073085199
  H         4.4590774627        9.9108158913        9.8621812042
  H         4.9018259555        2.4580117157        1.2102084635
  H         4.5666816001        2.2480682912        7.0017748821
  H         5.0876538096        7.5826092173        1.8514642082
  H         5.0200677032        7.5814056052        7.7567521016
  H         4.5179942184       11.6427577808        3.7141888156
  H         4.9453836020       11.6199246335        9.7753578426
  H         5.0263530815        6.2011486813        4.2577903934
  H         4.8799165963        5.9062939087        9.0565876466
  H         5.3516974701        7.4756875287        0.2092739103
  H         5.3277623039        7.5129765882        5.9967554739
  H         4.8457509724       10.1203669069        3.0147231268
  H         5.6592175588       10.5082584658        8.7110982586
  H         5.7503422363        3.2163904900        3.8111293640
  H         5.7099637594        3.0086900526        9.6172791336
  H         6.1013559360        9.5103726315        5.0322036899
  H         6.5500994201        9.2588902413       10.6873268745
  H         6.8450445321        4.1142574439        5.7566133218
  H         6.2978003081        4.4171649399       11.5269394679
  H         6.6872752299        1.4594130261        2.5558544781
  H         7.0868000607        0.9894649786        8.2748189472
  H         6.9229045773        0.0711053924        4.4832934680
  H         6.8850962980        0.0003802747       10.4973755662
  H         7.5732690206        5.3841891140        4.6695268753
  H         7.3530520198        5.4363701647       10.3619370089
  H         7.2270465201        1.5670581923        0.8797650774
  H         7.6355599510        1.0212559320        6.5315535192
  H         7.4090961909        9.0027632646        1.8129456539
  H         7.2372578202        8.6167282816        7.5677850872
  H         7.9192922937        3.6262293782        4.6106562224
  H         7.6759644473        3.8534153829       10.6051461462
  H         7.4821235036       10.8638581284        3.6984644593
  H         7.9788687073       11.1134041361        9.7851977749
  H         7.4279366586        7.2193663924        1.8553392055
  H         7.6980818136        6.9490224593        7.4196680592
  H         7.8540766906        0.1813379183        1.6432020394
  H         8.3957997180       12.2221278581        7.7321706259
  H         7.8515702686       11.1560436745        5.4485766364
  H         8.0701473306       11.3438638244        0.0930055348
  H         8.5117202076        8.0313158380        2.7805055766
  H         8.3861419327        8.0522564000        8.6304771653
  H         8.4222248659        3.1780014970        2.1859977785
  H         8.7336972691        2.8929865650        7.6758112064
  H         9.4200914659        9.2361986442        0.5835008559
  H         9.3187201230        9.3674428633        6.6155859308
  H         9.6041755148        2.0079826630        0.2840561457
  H        10.0676556971        1.9043316569        6.1402310669
  H         9.9560494586        4.7570955031        3.2854686269
  H         9.8749941658        4.9750743896        9.0338250362
  H         9.9091142279        6.4921787795        1.8088487767
  H        10.2674216016        6.4401414148        6.9367401932
  H        10.3140730194        0.9545468245        1.4030892738
  H        10.6007151044        0.4688700969        7.0849422054
  H        10.2467161713        4.5809862830        5.0423070816
  H        10.2098786757        4.5987824127       10.7035805404
  H        10.1377023663        9.8583874302        4.2349572825
  H        10.3219814102        9.7081295167        9.6473117171
  H        10.6832969111        2.6761928197        1.4997279288
  H        11.2087025052        2.0683916280        7.3216499176
  H        10.8604172239        8.0843075612        1.6669896618
  H        10.5556095296        7.6845100561        8.1091759420
  H        10.4508304722       11.4501877143        4.1386862523
  H        10.7217322315       11.3659979075       10.0580781898
  H        10.9134511371        6.0130109422        4.1217451124
  H        10.9434052074        6.0727474491        9.9738968648
  H        10.8531861451        6.9522703255        0.3714235831
  H        11.3452359013        7.8660889399        6.4095173905
  H        11.2133021015       10.3921730036        2.9766163522
  H        11.4941602329       10.4845878228        8.7458275731
  H        11.8750270840        3.1664293563        3.8731162347
  H        11.6526887446        3.1023496414        9.4985352580
  N         0.9741333597        4.4863582349        4.7553432492
  N         0.9166595364        4.4171676878       10.5215014930
  N         2.2348216290        7.7968074834        1.7782653645
  N         2.2218346672        7.9812201854        7.6166300898
  N         4.1017035581        1.8514339377        0.9554010450
  N         3.7882035746        1.6181060290        6.8119105779
  N         4.6709090473       10.6445755798        3.9396819158
  N         5.1987772739       10.6205524234        9.6947465786
  N         7.1760383568        4.3790740556        4.7339889784
  N         6.8536657058        4.4962420498       10.5595148093
  N         8.0481770684        8.0854853580        1.8678239663
  N         8.0602164644        7.9634367742        7.6256306971
  N         9.9121474288        1.9074893056        1.2866097424
  N        10.2594707081        1.4892005611        7.0614612347
  N        10.8818518236       10.5276343149        3.9943929463
  N        11.0811814124       10.4702796370        9.7244952243
  O         0.5304226171       10.1493067367        1.4787251206
  O         0.6469002622       10.1886843614        7.1536512172
  O         1.5638829751        5.2591343672        2.3528820894
  O         1.2415417212        5.3388014761        7.9056220367
  O         1.3793239747        7.5742979505        5.1057989423
  O         1.8357340176        7.2108376643       10.5402329499
  O         2.7833250058        2.3983981576        4.2621197146
  O         2.5035194725        2.2726388166       10.1720925747
  O         3.3211010314        8.3190492265        4.2057691280
  O         3.7976814435        8.1633601503       10.0363189680
  O         4.4435790551        1.0419641883        3.4306837785
  O         4.4178172361        1.1507229430        9.5316544692
  O         4.6403091047       11.3278018054        0.6907865741
  O         4.3105281755       11.2854529867        6.6588278353
  O         5.7703337761        4.0618292548        1.4147763532
  O         6.1859644567        3.4063074121        7.0707984734
  O         6.0500746342        9.7989201507        1.6225512791
  O         6.3473982675       10.3591382245        7.2353509784
  O         7.4314192097        5.4099312832        2.2209138478
  O         7.5775523513        4.9844615075        7.8031043070
  O         7.6534548850        7.1290475978        5.1868979600
  O         7.3528490881        7.2317951149       10.7833361568
  O         8.7052228795        2.2395813175        4.6760131309
  O         8.6729712789        2.4291174564       10.1490533964
  O         9.1339152234        8.4642493864        4.2318373181
  O         9.1001329055        8.3561786716        9.9256189683
  O        10.4593260916        1.2060083969        3.6407004862
  O        10.4271948525        1.0598884451        9.8107415320
  O        10.8025871111       11.3117413428        0.7996928717
  O        10.6336477505       10.9689239309        6.6056685514
  O        11.9036183296        3.9806948235        1.4669844139
  O        12.0516260412        3.6228651738        7.1582377322
